eb075ded7968
     RDKit          3D

 86 92  0  0  0  0  0  0  0  0999 V2000
    6.8915   -2.3591    2.8663 C   0  0  0  0  0  0  0  0  0  0  0  0
    5.5838   -2.8498    3.1247 O   0  0  0  0  0  0  0  0  0  0  0  0
    5.1035   -3.8694    2.2157 C   0  0  0  0  0  0  0  0  0  0  0  0
    3.7009   -4.4254    2.5416 C   0  0  0  0  0  0  0  0  0  0  0  0
    3.0982   -3.5066    1.4359 C   0  0  0  0  0  0  0  0  0  0  0  0
    2.7342   -2.2265    2.0900 N   0  0  0  0  0  0  0  0  0  0  0  0
    1.9672   -4.1291    0.5237 C   0  0  0  0  0  0  0  0  0  0  0  0
    1.5210   -5.2687    0.7235 O   0  0  0  0  0  0  0  0  0  0  0  0
    1.4687   -3.3627   -0.5365 N   0  0  0  0  0  0  0  0  0  0  0  0
    2.1090   -2.1284   -1.0111 C   0  0  0  0  0  0  0  0  0  0  0  0
    1.4552   -1.5635   -2.2861 C   0  0  0  0  0  0  0  0  0  0  0  0
   -0.0108   -1.5378   -2.1085 N   0  0  0  0  0  0  0  0  0  0  0  0
   -0.4604   -0.3742   -1.5046 C   0  0  0  0  0  0  0  0  0  0  0  0
   -0.0109    0.7361   -2.1291 N   0  0  0  0  0  0  0  0  0  0  0  0
   -0.3494    1.9284   -1.6438 C   0  0  0  0  0  0  0  0  0  0  0  0
    0.1127    3.0759   -2.2521 O   0  0  0  0  0  0  0  0  0  0  0  0
    0.8151    2.8135   -3.4688 C   0  0  0  0  0  0  0  0  0  0  0  0
    1.2615    4.1526   -4.0942 C   0  0  2  0  0  0  0  0  0  0  0  0
    0.0595    5.0820   -4.3453 C   0  0  0  0  0  0  0  0  0  0  0  0
    0.2327    5.5747   -5.7721 C   0  0  0  0  0  0  0  0  0  0  0  0
    1.0072    4.4505   -6.4297 C   0  0  0  0  0  0  0  0  0  0  0  0
    1.9727    4.1082   -5.3900 N   0  0  0  0  0  0  0  0  0  0  0  0
    2.7120    2.8940   -5.6847 C   0  0  0  0  0  0  0  0  0  0  0  0
   -1.0974    2.1273   -0.5678 N   0  0  0  0  0  0  0  0  0  0  0  0
   -1.5470    1.0448    0.0572 C   0  0  0  0  0  0  0  0  0  0  0  0
   -2.3024    1.2949    1.1932 C   0  0  0  0  0  0  0  0  0  0  0  0
   -2.8438    0.2780    1.9904 C   0  0  0  0  0  0  0  0  0  0  0  0
   -3.6158    0.6354    3.1865 C   0  0  0  0  0  0  0  0  0  0  0  0
   -2.8404    0.7043    4.3012 N   0  0  0  0  0  0  0  0  0  0  0  0
   -3.4183    1.0259    5.4631 C   0  0  0  0  0  0  0  0  0  0  0  0
   -2.5923    1.0820    6.5785 N   0  0  0  0  0  0  0  0  0  0  0  0
   -4.7616    1.3302    5.5642 C   0  0  0  0  0  0  0  0  0  0  0  0
   -5.5669    1.2916    4.4190 C   0  0  0  0  0  0  0  0  0  0  0  0
   -7.0210    1.6546    4.5534 C   0  0  0  0  0  0  0  0  0  0  0  0
   -4.9903    0.9048    3.1900 C   0  0  0  0  0  0  0  0  0  0  0  0
   -5.7830    0.8525    1.9099 C   0  0  0  0  0  0  0  0  0  0  0  0
   -5.7444    2.0375    1.2398 F   0  0  0  0  0  0  0  0  0  0  0  0
   -7.1061    0.5784    2.0915 F   0  0  0  0  0  0  0  0  0  0  0  0
   -5.3609   -0.0888    1.0207 F   0  0  0  0  0  0  0  0  0  0  0  0
   -2.5996   -1.0429    1.6099 C   0  0  0  0  0  0  0  0  0  0  0  0
   -3.2600   -2.3536    2.5433 Cl  0  0  0  0  0  0  0  0  0  0  0  0
   -1.8595   -1.3196    0.4425 C   0  0  0  0  0  0  0  0  0  0  0  0
   -1.2914   -0.2774   -0.3573 C   0  0  0  0  0  0  0  0  0  0  0  0
   -1.7153   -2.6515    0.1487 O   0  0  0  0  0  0  0  0  0  0  0  0
   -1.9270   -2.9200   -1.2308 C   0  0  0  0  0  0  0  0  0  0  0  0
   -0.5984   -2.8892   -1.9689 C   0  0  2  0  0  0  0  0  0  0  0  0
    0.4127   -3.9266   -1.3851 C   0  0  0  0  0  0  0  0  0  0  0  0
    4.5337   -3.3695    0.8694 C   0  0  0  0  0  0  0  0  0  0  0  0
    7.1246   -1.5881    3.6030 H   0  0  0  0  0  0  0  0  0  0  0  0
    6.9422   -1.9220    1.8669 H   0  0  0  0  0  0  0  0  0  0  0  0
    7.6220   -3.1677    2.9578 H   0  0  0  0  0  0  0  0  0  0  0  0
    5.8519   -4.6649    2.1076 H   0  0  0  0  0  0  0  0  0  0  0  0
    3.6180   -5.4995    2.3332 H   0  0  0  0  0  0  0  0  0  0  0  0
    3.3512   -4.2619    3.5662 H   0  0  0  0  0  0  0  0  0  0  0  0
    1.8698   -2.2954    2.6306 H   0  0  0  0  0  0  0  0  0  0  0  0
    3.4396   -1.8993    2.7576 H   0  0  0  0  0  0  0  0  0  0  0  0
    2.0472   -1.3831   -0.2127 H   0  0  0  0  0  0  0  0  0  0  0  0
    3.1642   -2.3352   -1.2107 H   0  0  0  0  0  0  0  0  0  0  0  0
    1.6882   -2.2160   -3.1389 H   0  0  0  0  0  0  0  0  0  0  0  0
    1.8968   -0.5902   -2.5343 H   0  0  0  0  0  0  0  0  0  0  0  0
    1.7020    2.2060   -3.2511 H   0  0  0  0  0  0  0  0  0  0  0  0
    0.1641    2.2786   -4.1718 H   0  0  0  0  0  0  0  0  0  0  0  0
    1.9233    4.6480   -3.3709 H   0  0  0  0  0  0  0  0  0  0  0  0
    0.0321    5.9187   -3.6402 H   0  0  0  0  0  0  0  0  0  0  0  0
   -0.8907    4.5412   -4.2654 H   0  0  0  0  0  0  0  0  0  0  0  0
    0.8181    6.5034   -5.7810 H   0  0  0  0  0  0  0  0  0  0  0  0
   -0.7253    5.7706   -6.2616 H   0  0  0  0  0  0  0  0  0  0  0  0
    0.3423    3.6106   -6.6576 H   0  0  0  0  0  0  0  0  0  0  0  0
    1.4928    4.7816   -7.3523 H   0  0  0  0  0  0  0  0  0  0  0  0
    2.0634    2.0172   -5.7860 H   0  0  0  0  0  0  0  0  0  0  0  0
    3.4547    2.6930   -4.9015 H   0  0  0  0  0  0  0  0  0  0  0  0
    3.2676    3.0072   -6.6220 H   0  0  0  0  0  0  0  0  0  0  0  0
   -2.4595    2.3354    1.4842 H   0  0  0  0  0  0  0  0  0  0  0  0
   -1.6673    0.7843    6.2782 H   0  0  0  0  0  0  0  0  0  0  0  0
   -2.9433    0.5052    7.3315 H   0  0  0  0  0  0  0  0  0  0  0  0
   -5.1735    1.6181    6.5267 H   0  0  0  0  0  0  0  0  0  0  0  0
   -7.3080    2.3854    3.7901 H   0  0  0  0  0  0  0  0  0  0  0  0
   -7.2313    2.1125    5.5261 H   0  0  0  0  0  0  0  0  0  0  0  0
   -7.6450    0.7601    4.4651 H   0  0  0  0  0  0  0  0  0  0  0  0
   -2.6751   -2.2504   -1.6810 H   0  0  0  0  0  0  0  0  0  0  0  0
   -2.3568   -3.9275   -1.2926 H   0  0  0  0  0  0  0  0  0  0  0  0
   -0.8252   -3.2266   -2.9909 H   0  0  0  0  0  0  0  0  0  0  0  0
   -0.1179   -4.7353   -0.8671 H   0  0  0  0  0  0  0  0  0  0  0  0
    0.9410   -4.4069   -2.2224 H   0  0  0  0  0  0  0  0  0  0  0  0
    4.8475   -2.3663    0.5657 H   0  0  0  0  0  0  0  0  0  0  0  0
    4.7485   -4.0525    0.0381 H   0  0  0  0  0  0  0  0  0  0  0  0
  1  2  1  0
  2  3  1  0
  3  4  1  0
  4  5  1  0
  5  6  1  0
  5  7  1  0
  7  8  2  0
  7  9  1  0
  9 10  1  0
 10 11  1  0
 11 12  1  0
 12 13  1  0
 13 14  1  0
 14 15  2  0
 15 16  1  0
 16 17  1  0
 17 18  1  0
 18 19  1  0
 19 20  1  0
 20 21  1  0
 21 22  1  0
 22 23  1  0
 15 24  1  0
 24 25  2  0
 25 26  1  0
 26 27  2  0
 27 28  1  0
 28 29  2  0
 29 30  1  0
 30 31  1  0
 30 32  2  0
 32 33  1  0
 33 34  1  0
 33 35  2  0
 35 36  1  0
 36 37  1  0
 36 38  1  0
 36 39  1  0
 27 40  1  0
 40 41  1  0
 40 42  2  0
 42 43  1  0
 42 44  1  0
 44 45  1  0
 45 46  1  0
 46 47  1  0
  5 48  1  0
 48  3  1  0
 47  9  1  0
 46 12  1  0
 43 13  2  0
 22 18  1  0
 43 25  1  0
 35 28  1  0
  1 49  1  0
  1 50  1  0
  1 51  1  0
  3 52  1  0
  4 53  1  0
  4 54  1  0
  6 55  1  0
  6 56  1  0
 10 57  1  0
 10 58  1  0
 11 59  1  0
 11 60  1  0
 17 61  1  0
 17 62  1  0
 18 63  1  1
 19 64  1  0
 19 65  1  0
 20 66  1  0
 20 67  1  0
 21 68  1  0
 21 69  1  0
 23 70  1  0
 23 71  1  0
 23 72  1  0
 26 73  1  0
 31 74  1  0
 31 75  1  0
 32 76  1  0
 34 77  1  0
 34 78  1  0
 34 79  1  0
 45 80  1  0
 45 81  1  0
 46 82  1  6
 47 83  1  0
 47 84  1  0
 48 85  1  0
 48 86  1  0
M  END
