7e343ef67e7e
     RDKit          3D

 84 89  0  0  0  0  0  0  0  0999 V2000
    2.3241   -8.2384    3.9078 C   0  0  0  0  0  0  0  0  0  0  0  0
    2.7099   -6.7900    3.7674 C   0  0  0  0  0  0  0  0  0  0  0  0
    3.8852   -6.3411    4.3827 C   0  0  0  0  0  0  0  0  0  0  0  0
    4.2611   -5.0151    4.2526 C   0  0  0  0  0  0  0  0  0  0  0  0
    5.4316   -4.5501    4.8542 N   0  0  0  0  0  0  0  0  0  0  0  0
    3.5199   -4.1345    3.5717 N   0  0  0  0  0  0  0  0  0  0  0  0
    2.3586   -4.5457    2.9969 C   0  0  0  0  0  0  0  0  0  0  0  0
    1.6648   -3.4478    2.3145 C   0  0  0  0  0  0  0  0  0  0  0  0
    2.0608   -3.0878    1.0203 C   0  0  0  0  0  0  0  0  0  0  0  0
    1.4850   -2.0418    0.3168 C   0  0  0  0  0  0  0  0  0  0  0  0
    1.9910   -1.8444   -0.8942 N   0  0  0  0  0  0  0  0  0  0  0  0
    1.4885   -0.8262   -1.5747 C   0  0  0  0  0  0  0  0  0  0  0  0
    1.9693   -0.6365   -2.8462 O   0  0  0  0  0  0  0  0  0  0  0  0
    2.8949    0.4538   -2.8135 C   0  0  0  0  0  0  0  0  0  0  0  0
    3.2908    0.8214   -4.2527 C   0  0  2  0  0  0  0  0  0  0  0  0
    4.5605    1.6726   -4.2812 C   0  0  0  0  0  0  0  0  0  0  0  0
    4.4786    2.4635   -5.5814 C   0  0  0  0  0  0  0  0  0  0  0  0
    3.0746    2.2151   -6.1142 C   0  0  0  0  0  0  0  0  0  0  0  0
    2.3399    1.7131   -4.9508 N   0  0  0  0  0  0  0  0  0  0  0  0
    1.1050    1.0438   -5.3433 C   0  0  0  0  0  0  0  0  0  0  0  0
    0.5359   -0.0002   -1.1555 N   0  0  0  0  0  0  0  0  0  0  0  0
    0.0117   -0.1848    0.0751 C   0  0  0  0  0  0  0  0  0  0  0  0
    0.4508   -1.2685    0.8888 C   0  0  0  0  0  0  0  0  0  0  0  0
    0.0146   -1.6605    2.1945 C   0  0  0  0  0  0  0  0  0  0  0  0
    0.6346   -2.7120    2.9036 C   0  0  0  0  0  0  0  0  0  0  0  0
    0.0754   -3.1250    4.5008 Cl  0  0  0  0  0  0  0  0  0  0  0  0
   -1.0183   -1.0535    2.8608 O   0  0  0  0  0  0  0  0  0  0  0  0
   -2.1268   -0.7471    2.0233 C   0  0  0  0  0  0  0  0  0  0  0  0
   -1.9430    0.6648    1.4969 C   0  0  2  0  0  0  0  0  0  0  0  0
   -3.3059    1.1919    0.9843 C   0  0  0  0  0  0  0  0  0  0  0  0
   -3.2445    2.5967    0.5613 N   0  0  0  0  0  0  0  0  0  0  0  0
   -4.3634    3.3982    0.7579 C   0  0  0  0  0  0  0  0  0  0  0  0
   -5.4064    2.9155    1.2146 O   0  0  0  0  0  0  0  0  0  0  0  0
   -4.2808    4.9077    0.4008 C   0  0  2  0  0  0  0  0  0  0  0  0
   -4.7781    5.7302    1.5980 C   0  0  0  0  0  0  0  0  0  0  0  0
   -5.0177    5.2595   -0.8455 N   0  0  0  0  0  0  0  0  0  0  0  0
   -6.4392    4.9091   -0.8252 C   0  0  0  0  0  0  0  0  0  0  0  0
   -4.3846    4.7146   -2.0439 C   0  0  0  0  0  0  0  0  0  0  0  0
   -1.9410    3.0474    0.0659 C   0  0  0  0  0  0  0  0  0  0  0  0
   -1.0857    1.9050   -0.5110 C   0  0  0  0  0  0  0  0  0  0  0  0
   -0.9174    0.7785    0.4384 N   0  0  0  0  0  0  0  0  0  0  0  0
    1.9099   -5.8684    3.0539 C   0  0  0  0  0  0  0  0  0  0  0  0
    0.6548   -6.3227    2.3552 C   0  0  0  0  0  0  0  0  0  0  0  0
   -0.1222   -5.3404    1.8239 F   0  0  0  0  0  0  0  0  0  0  0  0
   -0.1773   -7.0276    3.1750 F   0  0  0  0  0  0  0  0  0  0  0  0
    0.9336   -7.1578    1.3124 F   0  0  0  0  0  0  0  0  0  0  0  0
    3.1298   -8.8243    4.3639 H   0  0  0  0  0  0  0  0  0  0  0  0
    2.1216   -8.6817    2.9284 H   0  0  0  0  0  0  0  0  0  0  0  0
    1.4402   -8.3340    4.5456 H   0  0  0  0  0  0  0  0  0  0  0  0
    4.5065   -7.0270    4.9512 H   0  0  0  0  0  0  0  0  0  0  0  0
    6.2304   -5.0826    4.5262 H   0  0  0  0  0  0  0  0  0  0  0  0
    5.3678   -4.6607    5.8612 H   0  0  0  0  0  0  0  0  0  0  0  0
    2.8750   -3.6393    0.5469 H   0  0  0  0  0  0  0  0  0  0  0  0
    2.4699    1.3327   -2.3090 H   0  0  0  0  0  0  0  0  0  0  0  0
    3.7883    0.1358   -2.2606 H   0  0  0  0  0  0  0  0  0  0  0  0
    3.4511   -0.0930   -4.8419 H   0  0  0  0  0  0  0  0  0  0  0  0
    5.4643    1.0550   -4.2406 H   0  0  0  0  0  0  0  0  0  0  0  0
    4.5939    2.3688   -3.4334 H   0  0  0  0  0  0  0  0  0  0  0  0
    5.2353    2.1317   -6.3015 H   0  0  0  0  0  0  0  0  0  0  0  0
    4.6473    3.5289   -5.3853 H   0  0  0  0  0  0  0  0  0  0  0  0
    2.6275    3.1324   -6.5127 H   0  0  0  0  0  0  0  0  0  0  0  0
    3.1157    1.4716   -6.9208 H   0  0  0  0  0  0  0  0  0  0  0  0
    0.5174    0.7587   -4.4645 H   0  0  0  0  0  0  0  0  0  0  0  0
    1.2889    0.1477   -5.9476 H   0  0  0  0  0  0  0  0  0  0  0  0
    0.4736    1.7242   -5.9258 H   0  0  0  0  0  0  0  0  0  0  0  0
   -2.2812   -1.4942    1.2330 H   0  0  0  0  0  0  0  0  0  0  0  0
   -3.0099   -0.7953    2.6705 H   0  0  0  0  0  0  0  0  0  0  0  0
   -1.6105    1.3072    2.3244 H   0  0  0  0  0  0  0  0  0  0  0  0
   -4.0676    1.0720    1.7632 H   0  0  0  0  0  0  0  0  0  0  0  0
   -3.6349    0.6159    0.1096 H   0  0  0  0  0  0  0  0  0  0  0  0
   -3.2386    5.2142    0.2730 H   0  0  0  0  0  0  0  0  0  0  0  0
   -4.7644    6.8018    1.3712 H   0  0  0  0  0  0  0  0  0  0  0  0
   -5.7912    5.4559    1.9103 H   0  0  0  0  0  0  0  0  0  0  0  0
   -4.1252    5.5654    2.4633 H   0  0  0  0  0  0  0  0  0  0  0  0
   -6.9368    5.3226   -1.7109 H   0  0  0  0  0  0  0  0  0  0  0  0
   -6.6099    3.8269   -0.8298 H   0  0  0  0  0  0  0  0  0  0  0  0
   -6.9558    5.3453    0.0347 H   0  0  0  0  0  0  0  0  0  0  0  0
   -3.3536    5.0748   -2.1326 H   0  0  0  0  0  0  0  0  0  0  0  0
   -4.9029    5.0621   -2.9442 H   0  0  0  0  0  0  0  0  0  0  0  0
   -4.3802    3.6188   -2.0575 H   0  0  0  0  0  0  0  0  0  0  0  0
   -2.0703    3.8084   -0.7047 H   0  0  0  0  0  0  0  0  0  0  0  0
   -1.4253    3.5125    0.9146 H   0  0  0  0  0  0  0  0  0  0  0  0
   -1.5689    1.5358   -1.4256 H   0  0  0  0  0  0  0  0  0  0  0  0
   -0.1121    2.3344   -0.7805 H   0  0  0  0  0  0  0  0  0  0  0  0
  1  2  1  0
  2  3  2  0
  3  4  1  0
  4  5  1  0
  4  6  2  0
  6  7  1  0
  7  8  1  0
  8  9  2  0
  9 10  1  0
 10 11  2  0
 11 12  1  0
 12 13  1  0
 13 14  1  0
 14 15  1  0
 15 16  1  0
 16 17  1  0
 17 18  1  0
 18 19  1  0
 19 20  1  0
 12 21  2  0
 21 22  1  0
 22 23  2  0
 23 24  1  0
 24 25  2  0
 25 26  1  0
 24 27  1  0
 27 28  1  0
 28 29  1  0
 29 30  1  0
 30 31  1  0
 31 32  1  0
 32 33  2  0
 32 34  1  0
 34 35  1  0
 34 36  1  0
 36 37  1  0
 36 38  1  0
 31 39  1  0
 39 40  1  0
 40 41  1  0
  7 42  2  0
 42 43  1  0
 43 44  1  0
 43 45  1  0
 43 46  1  0
 42  2  1  0
 25  8  1  0
 41 29  1  0
 23 10  1  0
 19 15  1  0
 41 22  1  0
  1 47  1  0
  1 48  1  0
  1 49  1  0
  3 50  1  0
  5 51  1  0
  5 52  1  0
  9 53  1  0
 14 54  1  0
 14 55  1  0
 15 56  1  6
 16 57  1  0
 16 58  1  0
 17 59  1  0
 17 60  1  0
 18 61  1  0
 18 62  1  0
 20 63  1  0
 20 64  1  0
 20 65  1  0
 28 66  1  0
 28 67  1  0
 29 68  1  1
 30 69  1  0
 30 70  1  0
 34 71  1  6
 35 72  1  0
 35 73  1  0
 35 74  1  0
 37 75  1  0
 37 76  1  0
 37 77  1  0
 38 78  1  0
 38 79  1  0
 38 80  1  0
 39 81  1  0
 39 82  1  0
 40 83  1  0
 40 84  1  0
M  END
