6d8b9c6acb78
     RDKit          3D

 79 85  0  0  0  0  0  0  0  0999 V2000
   -0.8702   -7.7440    2.0557 C   0  0  0  0  0  0  0  0  0  0  0  0
    0.0592   -6.5916    2.3233 C   0  0  0  0  0  0  0  0  0  0  0  0
    1.2545   -6.8427    3.0092 C   0  0  0  0  0  0  0  0  0  0  0  0
    2.1364   -5.8049    3.2468 C   0  0  0  0  0  0  0  0  0  0  0  0
    3.3438   -6.0315    3.8983 N   0  0  0  0  0  0  0  0  0  0  0  0
    1.9037   -4.5557    2.8306 N   0  0  0  0  0  0  0  0  0  0  0  0
    0.7365   -4.2927    2.1849 C   0  0  0  0  0  0  0  0  0  0  0  0
    0.6314   -2.8886    1.7688 C   0  0  0  0  0  0  0  0  0  0  0  0
    1.0452   -2.5230    0.4828 C   0  0  0  0  0  0  0  0  0  0  0  0
    1.0025   -1.2183    0.0179 C   0  0  0  0  0  0  0  0  0  0  0  0
    1.4390   -1.0630   -1.2249 N   0  0  0  0  0  0  0  0  0  0  0  0
    1.4387    0.1697   -1.7093 C   0  0  0  0  0  0  0  0  0  0  0  0
    1.8545    0.4172   -2.9951 O   0  0  0  0  0  0  0  0  0  0  0  0
    2.1644   -0.7327   -3.7876 C   0  0  0  0  0  0  0  0  0  0  0  0
    0.9891   -1.0769   -4.7201 C   0  0  2  0  0  0  0  0  0  0  0  0
   -0.1823   -1.7241   -3.9796 C   0  0  0  0  0  0  0  0  0  0  0  0
   -0.9440   -2.4955   -5.0495 C   0  0  0  0  0  0  0  0  0  0  0  0
   -0.0318   -2.4994   -6.2673 C   0  0  0  0  0  0  0  0  0  0  0  0
    1.2798   -2.0973   -5.7465 N   0  0  0  0  0  0  0  0  0  0  0  0
    2.1457   -1.6141   -6.8162 C   0  0  0  0  0  0  0  0  0  0  0  0
    1.0529    1.2477   -1.0366 N   0  0  0  0  0  0  0  0  0  0  0  0
    0.6078    1.1147    0.2329 C   0  0  0  0  0  0  0  0  0  0  0  0
    0.5300   -0.1723    0.8357 C   0  0  0  0  0  0  0  0  0  0  0  0
    0.0702   -0.5478    2.1395 C   0  0  0  0  0  0  0  0  0  0  0  0
    0.1499   -1.8789    2.6040 C   0  0  0  0  0  0  0  0  0  0  0  0
   -0.4115   -2.2705    4.2057 Cl  0  0  0  0  0  0  0  0  0  0  0  0
   -0.4673    0.3381    3.0373 O   0  0  0  0  0  0  0  0  0  0  0  0
   -1.3483    1.2820    2.4400 C   0  0  0  0  0  0  0  0  0  0  0  0
   -0.5376    2.5070    2.0560 C   0  0  2  0  0  0  0  0  0  0  0  0
   -1.5028    3.7022    1.8725 C   0  0  0  0  0  0  0  0  0  0  0  0
   -0.8088    4.9511    1.5662 N   0  0  0  0  0  0  0  0  0  0  0  0
   -1.4587    6.1528    1.8088 C   0  0  0  0  0  0  0  0  0  0  0  0
   -2.6096    6.2161    2.2340 O   0  0  0  0  0  0  0  0  0  0  0  0
   -0.7161    7.4426    1.5163 C   0  0  0  0  0  0  0  0  0  0  0  0
   -0.8198    7.8697    0.1005 N   0  0  0  0  0  0  0  0  0  0  0  0
   -0.7389    8.5267    2.5765 C   0  0  0  0  0  0  0  0  0  0  0  0
    0.5330    7.7877    2.2944 C   0  0  0  0  0  0  0  0  0  0  0  0
    0.5042    4.8226    0.9316 C   0  0  0  0  0  0  0  0  0  0  0  0
    0.6232    3.5459    0.0816 C   0  0  0  0  0  0  0  0  0  0  0  0
    0.2848    2.3164    0.8433 N   0  0  0  0  0  0  0  0  0  0  0  0
   -0.2308   -5.2708    1.9181 C   0  0  0  0  0  0  0  0  0  0  0  0
   -1.4827   -4.9127    1.1607 C   0  0  0  0  0  0  0  0  0  0  0  0
   -1.2875   -4.9426   -0.1875 F   0  0  0  0  0  0  0  0  0  0  0  0
   -2.5333   -5.7493    1.3967 F   0  0  0  0  0  0  0  0  0  0  0  0
   -1.9691   -3.6696    1.4354 F   0  0  0  0  0  0  0  0  0  0  0  0
   -0.3883   -8.7046    2.2679 H   0  0  0  0  0  0  0  0  0  0  0  0
   -1.7583   -7.6688    2.6907 H   0  0  0  0  0  0  0  0  0  0  0  0
   -1.1664   -7.7635    1.0020 H   0  0  0  0  0  0  0  0  0  0  0  0
    1.5087   -7.8460    3.3386 H   0  0  0  0  0  0  0  0  0  0  0  0
    3.2080   -6.4808    4.7962 H   0  0  0  0  0  0  0  0  0  0  0  0
    3.8038   -5.1293    3.9962 H   0  0  0  0  0  0  0  0  0  0  0  0
    1.4384   -3.2928   -0.1839 H   0  0  0  0  0  0  0  0  0  0  0  0
    2.5080   -1.5994   -3.2099 H   0  0  0  0  0  0  0  0  0  0  0  0
    3.0256   -0.4307   -4.3939 H   0  0  0  0  0  0  0  0  0  0  0  0
    0.6244   -0.1531   -5.1929 H   0  0  0  0  0  0  0  0  0  0  0  0
   -0.8212   -0.9836   -3.4877 H   0  0  0  0  0  0  0  0  0  0  0  0
    0.1675   -2.4304   -3.2168 H   0  0  0  0  0  0  0  0  0  0  0  0
   -1.8991   -2.0119   -5.2807 H   0  0  0  0  0  0  0  0  0  0  0  0
   -1.1565   -3.5133   -4.7040 H   0  0  0  0  0  0  0  0  0  0  0  0
   -0.4123   -1.7819   -7.0059 H   0  0  0  0  0  0  0  0  0  0  0  0
    0.0064   -3.4873   -6.7375 H   0  0  0  0  0  0  0  0  0  0  0  0
    2.2704   -2.3875   -7.5826 H   0  0  0  0  0  0  0  0  0  0  0  0
    1.7497   -0.7140   -7.2999 H   0  0  0  0  0  0  0  0  0  0  0  0
    3.1478   -1.3899   -6.4381 H   0  0  0  0  0  0  0  0  0  0  0  0
   -1.9235    0.8565    1.6062 H   0  0  0  0  0  0  0  0  0  0  0  0
   -2.0768    1.5407    3.2172 H   0  0  0  0  0  0  0  0  0  0  0  0
    0.1574    2.7419    2.8740 H   0  0  0  0  0  0  0  0  0  0  0  0
   -2.1936    3.5117    1.0410 H   0  0  0  0  0  0  0  0  0  0  0  0
   -2.1077    3.8471    2.7755 H   0  0  0  0  0  0  0  0  0  0  0  0
   -0.5474    8.8460   -0.0002 H   0  0  0  0  0  0  0  0  0  0  0  0
   -1.8029    7.8337   -0.1785 H   0  0  0  0  0  0  0  0  0  0  0  0
   -0.8077    9.5625    2.2681 H   0  0  0  0  0  0  0  0  0  0  0  0
   -1.2563    8.3152    3.5067 H   0  0  0  0  0  0  0  0  0  0  0  0
    1.3287    8.3143    1.7814 H   0  0  0  0  0  0  0  0  0  0  0  0
    0.8825    7.0904    3.0475 H   0  0  0  0  0  0  0  0  0  0  0  0
    1.2422    4.7974    1.7423 H   0  0  0  0  0  0  0  0  0  0  0  0
    0.7260    5.6916    0.3087 H   0  0  0  0  0  0  0  0  0  0  0  0
   -0.0536    3.6313   -0.7787 H   0  0  0  0  0  0  0  0  0  0  0  0
    1.6552    3.5012   -0.2894 H   0  0  0  0  0  0  0  0  0  0  0  0
  1  2  1  0
  2  3  2  0
  3  4  1  0
  4  5  1  0
  4  6  2  0
  6  7  1  0
  7  8  1  0
  8  9  2  0
  9 10  1  0
 10 11  2  0
 11 12  1  0
 12 13  1  0
 13 14  1  0
 14 15  1  0
 15 16  1  0
 16 17  1  0
 17 18  1  0
 18 19  1  0
 19 20  1  0
 12 21  2  0
 21 22  1  0
 22 23  2  0
 23 24  1  0
 24 25  2  0
 25 26  1  0
 24 27  1  0
 27 28  1  0
 28 29  1  0
 29 30  1  0
 30 31  1  0
 31 32  1  0
 32 33  2  0
 32 34  1  0
 34 35  1  0
 34 36  1  0
 36 37  1  0
 31 38  1  0
 38 39  1  0
 39 40  1  0
  7 41  2  0
 41 42  1  0
 42 43  1  0
 42 44  1  0
 42 45  1  0
 41  2  1  0
 25  8  1  0
 40 29  1  0
 23 10  1  0
 37 34  1  0
 19 15  1  0
 40 22  1  0
  1 46  1  0
  1 47  1  0
  1 48  1  0
  3 49  1  0
  5 50  1  0
  5 51  1  0
  9 52  1  0
 14 53  1  0
 14 54  1  0
 15 55  1  6
 16 56  1  0
 16 57  1  0
 17 58  1  0
 17 59  1  0
 18 60  1  0
 18 61  1  0
 20 62  1  0
 20 63  1  0
 20 64  1  0
 28 65  1  0
 28 66  1  0
 29 67  1  1
 30 68  1  0
 30 69  1  0
 35 70  1  0
 35 71  1  0
 36 72  1  0
 36 73  1  0
 37 74  1  0
 37 75  1  0
 38 76  1  0
 38 77  1  0
 39 78  1  0
 39 79  1  0
M  END
